/---------------------------------------------------------------------
/ TELEMAC2D Version v7p1 31 janv. 2020
/ LORGUES
/---------------------------------------------------------------------



/---------------------------------------------------------------------
/ CONDITIONS LIMITES
/---------------------------------------------------------------------

COURBES DE TARAGE =1;0;0


/---------------------------------------------------------------------
/ ENTREES-SORTIES, FICHIERS
/---------------------------------------------------------------------

FICHIER DES RESULTATS              ='res.res'

FICHIER DES COURBES DE TARAGE      ='courbe_tarage.txt'

FICHIER DES FRONTIERES LIQUIDES    ='cas.liq'

FICHIER DES PARAMETRES             ='Q100.cas'

FICHIER DE GEOMETRIE               ='geo'

FICHIER DES CONDITIONS AUX LIMITES ='cas.conlim'

FICHIER DU CALCUL PRECEDENT        ='condInit.ser'


/---------------------------------------------------------------------
/ ENTREES-SORTIES, GENERALITES
/---------------------------------------------------------------------

SUITE DE CALCUL =true

VALIDATION      =NON

TITRE           ='LORGUES'


/---------------------------------------------------------------------
/ ENTREES-SORTIES, GRAPHIQUES ET LISTING
/---------------------------------------------------------------------

BILAN DE MASSE                        =VRAI

PERIODE DE SORTIE LISTING             =1800

VARIABLES POUR LES SORTIES GRAPHIQUES =U,V,B,S,H

PERIODE POUR LES SORTIES GRAPHIQUES   =1800


/---------------------------------------------------------------------
/ EQUATIONS
/---------------------------------------------------------------------

COEFFICIENT DE DIFFUSION DES VITESSES =0.01

LOI DE FROTTEMENT SUR LE FOND         =3

MODELE DE TURBULENCE                  =1

COEFFICIENT DE FROTTEMENT             =10.


/---------------------------------------------------------------------
/ EQUATIONS, CONDITIONS LIMITES
/---------------------------------------------------------------------

DEBITS IMPOSES                      =0;30;132

OPTION POUR LES FRONTIERES LIQUIDES =1;1;1

COTES IMPOSEES                      =84.9;0;0

PROFILS DE VITESSE                  =1;3;3


/---------------------------------------------------------------------
/ EQUATIONS, SOURCES
/---------------------------------------------------------------------

TYPE DES SOURCES =1


/---------------------------------------------------------------------
/ PARAMETRES NUMERIQUES
/---------------------------------------------------------------------

DUREE DU CALCUL                               =24000

PRECONDITIONNEMENT                            =2

TRAITEMENT DU SYSTEME LINEAIRE                =2

EQUATIONS                                     ='SAINT-VENANT EF'

COMPATIBILITE DU GRADIENT DE SURFACE LIBRE    =0.9

FORME DE LA CONVECTION                        =1;5

PROFONDEUR LIMITE POUR PROCEDURE DE RESSUYAGE =0.1

DISCRETISATIONS EN ESPACE                     =11;11

PROCESSEURS PARALLELES                        =20

OPTION DE SUPG                                =0;0

PRODUIT MATRICE-VECTEUR                       =1

PAS DE TEMPS                                  =1.

CORRECTION DE CONTINUITE                      =vrai

TRAITEMENT DES HAUTEURS NEGATIVES             =2

OPTION DE TRAITEMENT DES BANCS DECOUVRANTS    =1

STOCKAGE DES MATRICES                         =3

BANCS DECOUVRANTS                             =VRAI


/---------------------------------------------------------------------
/ PARAMETRES NUMERIQUES, SOLVEUR
/---------------------------------------------------------------------

MAXIMUM D'ITERATIONS POUR LE SOLVEUR =200

MAXIMUM D'ITERATIONS POUR LES SCHEMAS DE CONVECTION =200

SOLVEUR                              =1

PRECISION DU SOLVEUR                 =0.001

OPTION DU SOLVEUR                    =3


/---------------------------------------------------------------------
/ PARAMETRES NUMERIQUES, VITESSE-CELERITE-HAUTEUR
/---------------------------------------------------------------------

IMPLICITATION POUR LA HAUTEUR =1

CLIPPING DE H                 =NON

IMPLICITATION POUR LA VITESSE =1

MASS-LUMPING SUR H            =1.
