/---------------------------------------------------------------------
/ TELEMAC2D Version v7p1 29 juin 2020
/ Extension_Agly
/---------------------------------------------------------------------



/---------------------------------------------------------------------
/ ENTREES-SORTIES, FICHIERS
/---------------------------------------------------------------------

FICHIER DES RESULTATS              ='res.res'

FICHIER DES FRONTIERES LIQUIDES    ='cas.liq'

FICHIER DES PARAMETRES             ='Q100.cas'

/FICHIER DE DONNEES DES BUSES       ='cas.siphons'

FICHIER DE GEOMETRIE               ='geo'

FICHIER DES CONDITIONS AUX LIMITES ='cas.conlim'

FICHIER DU CALCUL PRECEDENT        ='condInit.ser'


/---------------------------------------------------------------------
/ ENTREES-SORTIES, GENERALITES
/---------------------------------------------------------------------

SUITE DE CALCUL =true

VALIDATION      =NON

TITRE           ='Extension_Agly'


/---------------------------------------------------------------------
/ ENTREES-SORTIES, GRAPHIQUES ET LISTING
/---------------------------------------------------------------------

BILAN DE MASSE                        =VRAI

PERIODE DE SORTIE LISTING             =2000

VARIABLES POUR LES SORTIES GRAPHIQUES =U,V,B,S,H

PERIODE POUR LES SORTIES GRAPHIQUES   =6000


/---------------------------------------------------------------------
/ EQUATIONS
/---------------------------------------------------------------------

COEFFICIENT DE DIFFUSION DES VITESSES =0.01

LOI DE FROTTEMENT SUR LE FOND         =3

MODELE DE TURBULENCE                  =1

COEFFICIENT DE FROTTEMENT             =20


/---------------------------------------------------------------------
/ EQUATIONS, CONDITIONS LIMITES
/---------------------------------------------------------------------

DEBITS IMPOSES                      =4;0;0;0;2;1;3

OPTION POUR LES FRONTIERES LIQUIDES =1;1;1;2;1;1;1

COTES IMPOSEES                      =0;0;2;0;0;0;0

PROFILS DE VITESSE                  =3;3;1;1;3;3;3


/---------------------------------------------------------------------
/ PARAMETRES NUMERIQUES
/---------------------------------------------------------------------

DUREE DU CALCUL                               =24000

/NOMBRE DE BUSES                               =6

PRECONDITIONNEMENT                            =2

TRAITEMENT DU SYSTEME LINEAIRE                =2

EQUATIONS                                     ='SAINT-VENANT EF'

COMPATIBILITE DU GRADIENT DE SURFACE LIBRE    =0.9

FORME DE LA CONVECTION                        =1;5

PROFONDEUR LIMITE POUR PROCEDURE DE RESSUYAGE =0.1

PROCESSEURS PARALLELES                        =20

DISCRETISATIONS EN ESPACE                     =11;11

OPTION DE SUPG                                =0;0

PRODUIT MATRICE-VECTEUR                       =1

PAS DE TEMPS                                  =1

CORRECTION DE CONTINUITE                      =vrai

TRAITEMENT DES HAUTEURS NEGATIVES             =2

OPTION DE TRAITEMENT DES BANCS DECOUVRANTS    =1

STOCKAGE DES MATRICES                         =3

BANCS DECOUVRANTS                             =VRAI


/---------------------------------------------------------------------
/ PARAMETRES NUMERIQUES, SOLVEUR
/---------------------------------------------------------------------

MAXIMUM D'ITERATIONS POUR LE SOLVEUR =200

MAXIMUM D'ITERATIONS POUR LES SCHEMAS DE CONVECTION =200

SOLVEUR                              =1

PRECISION DU SOLVEUR                 =0.001

OPTION DU SOLVEUR                    =3


/---------------------------------------------------------------------
/ PARAMETRES NUMERIQUES, VITESSE-CELERITE-HAUTEUR
/---------------------------------------------------------------------

IMPLICITATION POUR LA HAUTEUR =1.

CLIPPING DE H                 =NON

IMPLICITATION POUR LA VITESSE =1.

MASS-LUMPING SUR H            =1.
